data_crystal

_audit_creation_method 'AiiDA-DDEC plugin'

_cell_length_a         10.0
_cell_length_b        11.18034
_cell_length_c        10.0

_cell_angle_alpha     90.0
_cell_angle_beta      90.0
_cell_angle_gamma     63.434995

_symmetry_space_group_name_Hall 'P 1'
_symmetry_space_group_name_H-M  'P 1'

loop_
_symmetry_equiv_pos_as_xyz
 'x,y,z'

loop_
_atom_site_label
_atom_site_type_symbol
_atom_site_fract_x
_atom_site_fract_y
_atom_site_fract_z
_atom_site_charge
Nd         Nd      0.25     0.75        0.25    -0.5
Nd         Nd      0.25     0.5         0.75    1.0
H          H       0.0      0.0         0.0     -0.5

